#p UHF/Gen Scf(MaxCycle=250)
opt=(z-matrix, maxcycle=30)
GFOldPrint pop=full Guess=Huckel

comment line

0 3
C       0.000000000000      0.000000000000      0.000000000000
H       0.000000000000      0.000000000000      1.100000000000
H       0.764124000000      0.000000000000     -0.791274000000

H     0
S    3   1.00
      0.1873113696D+02       0.3349460434D-01
      0.2825394365D+01       0.2347269535D+00
      0.6401216923D+00       0.8137573261D+00
S    1   1.00
      0.1612777588D+00       1.0000000
****
C     0
S    6   1.00
      0.3047524880D+04       0.1834737132D-02
      0.4573695180D+03       0.1403732281D-01
      0.1039486850D+03       0.6884262226D-01
      0.2921015530D+02       0.2321844432D+00
      0.9286662960D+01       0.4679413484D+00
      0.3163926960D+01       0.3623119853D+00
SP   3   1.00
      0.7868272350D+01      -0.1193324198D+00       0.6899906659D-01
      0.1881288540D+01      -0.1608541517D+00       0.3164239610D+00
      0.5442492580D+00       0.1143456438D+01       0.7443082909D+00
SP   1   1.00
      0.1687144782D+00       0.1000000000D+01       0.1000000000D+01
D    1   1.00
      0.8000000000D+00       1.0000000
****

